*----------------------------------------------------------------------
* SPICE Netlist Generated by TDK Corporation
* Copyright(C) 2020 TDK Corporation.
* All Rights Reserved.
*----------------------------------------------------------------------
* TDK P/N: MCZ1210AH900L2TA0G (Common Mode Filter)
* Property: |Zc|=90ohm at 100MHz
* Size(LxWxT): 1.25x1x0.5mm
* Model Type: Simple Model
* Model Generated on Aug. 18, 2020
*----------------------------------------------------------------------
* Terms and conditions regarding TDK Simulation Models:
* 1)This simulation model is being provided solely for informational
*   purposes. Please refer to the specifications of the products in
*   terms of detailed characteristics of such products.
* 2)In no event shall TDK Corporation of any of its subsidiaries be
*   liable for any loss or damage arising, directly or indirectly,
*   from any information contained in this simulation model, including,
*   but not limited to loss or damages arising from any inaccuracies,
*   omissions or errors in connection with such information.
* 3)Any and all copyrights on this simulation model are owned by
*   TDK Corporation.  Duplication or redistribution of this simulation
*   model without prior written permission from TDK Corporation
*   is prohibited.
* 4)This simulation model is subject to any modification or change
*   without any prior notice.
* 5)Neither TDK Corporation nor any of its subsidiaries shall make any
*   warranty, express or implied, including but not limited to the
*   correctness, implied warranties of merchantability and fitness for
*   a particular purpose with respect to this simulation models.
* 6)The use of this simulation model shall be deemed to have consented
*   to the terms and conditions hereof.
*----------------------------------------------------------------------
* External Node Assignments:
*
*  n1 ---@@@--- n4
*        ===
*  n2 ---@@@--- n3
*
*----------------------------------------------------------------------
* Applicable Conditions:
*   Temperature = 25 degC
*   DC Bias Current = 0 A
*   Small Signal Operation
*----------------------------------------------------------------------
.SUBCKT MCZ1210AH900L2TA0G_s n1 n2 n3 n4
C11 11 12 1.00000000E-14
C12 21 22 1.00000000E-14
C13 31 32 1.00000000E-14
C14 41 42 1.00000000E-14
C21 12 42 1.50000000E-13
C22 22 32 1.50000000E-13
C41 12 22 6.50000000E-13
C42 32 42 6.50000000E-13
K11 L21 L22 9.99999999E-01
L11 11 12 2.00000000E-09
L12 21 22 2.00000000E-09
L13 31 32 2.00000000E-09
L14 41 42 2.00000000E-09
L21 12 42 1.40000000E-07
L22 22 32 1.40000000E-07
R11 11 12 1.20000000E+03
R12 21 22 1.20000000E+03
R13 31 32 1.20000000E+03
R14 41 42 1.20000000E+03
R21 12 42 9.50000000E+02
R22 22 32 9.50000000E+02
R31 n1 11 5.00000000E-01
R32 n2 21 5.00000000E-01
R33 n3 31 5.00000000E-01
R34 n4 41 5.00000000E-01
R41 12 22 1.00000000E+09
R42 32 42 1.00000000E+09
R51 n1 n4 1.00000000E+09
R52 n2 n3 1.00000000E+09
.ENDS MCZ1210AH900L2TA0G_s
*----------------------------------------------------------------------
